FoamFile
{
    version     2.0;
    format      ascii;
    class       dictionary;
    location    "system";
    object      controlDict;
}

application     interFoam;

startFrom       startTime;

startTime       0;

stopAt          endTime;

endTime         1;

deltaT          2e-03;

writeControl    adjustableRunTime;

writeInterval   2e-03;

purgeWrite      0;

writeFormat     ascii;

writePrecision  6;

writeCompression off;

timeFormat      general;

timePrecision   6;

runTimeModifiable yes;

adjustTimeStep  no;

maxCo           2;
maxAlphaCo      1;
maxDeltaT       1;

functions
{
    preCICE_Adapter
    {
        type preciceAdapterFunctionObject;
        libs ("libpreciceAdapterFunctionObject.so");
    }
}
