FoamFile
{
    version     2.0;
    format      ascii;
    class       dictionary;
    object      blockMeshDict;
}
// * * * * * * * * * * * * * * * * * * * * * * * * * * * * * * * * * * * * * //

scale   1.;

x0 -3.; 
x1 -0.05;
x2 0.05;
x3 3.;

y0 0.;
y1 1.;
y2 4.;

w_f 0.5;
w_b -0.5;

vertices
(
    ($x0 $y0 $w_f)        // 0
    ($x1 $y0 $w_f)        // 1
    ($x2 $y0 $w_f)        // 2
    ($x3 $y0 $w_f)        // 3
    ($x0 $y1 $w_f)        // 4
    ($x1 $y1 $w_f)        // 5
    ($x2 $y1 $w_f)        // 6
    ($x3 $y1 $w_f)        // 7
    ($x0 $y2 $w_f)        // 8
    ($x1 $y2 $w_f)        // 9
    ($x2 $y2 $w_f)        // 10
    ($x3 $y2 $w_f)        // 11
         
    ($x0 $y0 $w_b)         // 12
    ($x1 $y0 $w_b)         // 13
    ($x2 $y0 $w_b)         // 14
    ($x3 $y0 $w_b)         // 15
    ($x0 $y1 $w_b)         // 16
    ($x1 $y1 $w_b)         // 17
    ($x2 $y1 $w_b)         // 18
    ($x3 $y1 $w_b)         // 19
    ($x0 $y2 $w_b)         // 20
    ($x1 $y2 $w_b)         // 21
    ($x2 $y2 $w_b)         // 22
    ($x3 $y2 $w_b)         // 23
);

// Grading
h1 30;
h2 3;
v1 15;
v2 30;

blocks
(
    hex (   0   4   5   1   12  16  17  13  )
    ($v1 $h1 1)
    simpleGrading (1 0.5 1)

    hex (   2   6   7   3   14  18  19  15  )
    ($v1 $h1 1)
    simpleGrading (1 2 1)

    hex (   4   8   9   5   16  20  21  17  )
    ($v2 $h1 1)
    simpleGrading (2 0.5 1)

    hex (   5   9   10  6   17  21  22  18  )
    ($v2 $h2 1)
    simpleGrading (2 1 1)

    hex (   6   10  11  7   18  22  23  19  )
    ($v2 $h1 1)
    simpleGrading (2 2 1)
);

edges
(
);

boundary
(
    inlet
    {
        type patch;
        faces
        (
            (  0   12  16  4   )
            (  4   16  20  8   )
        );
    }
    outlet
    {
        type patch;
        faces
        (
            (   3   15  19  7   )
            (   7   19  23  11  )
        );
    }
    flap
    {
        type wall;
        faces
        (
            (   1   13  17  5  )
            (   5   17  18  6  )
            (   6   18  14  2  )
        );
    }
    upperWall
    {
        type wall;
        faces
        (
            (   8   20  21  9   )
            (   9   21  22  10  )
            (   10  22  23  11  )
        );
    }
    lowerWall
    {
        type wall;
        faces
        (
            (   0   12  13  1   )
            (   2   14  15  3   )
        );
    }
    frontAndBack
    {
        type empty;
        faces
        (
            (   0   4   5   1    )
            (   2   6   7   3    )
            (   4   8   9   5    )
            (   5   9   10  6    )
            (   6   10  11  7    )
            (   12  16  17  13   )
            (   14  18  19  15   )
            (   16  20  21  17   )
            (   17  21  22  18   )
            (   18  22  23  19   )
        );
    }
);

// ************************************************************************* //
