FoamFile
{
    version     2.0;
    format      ascii;
    class       dictionary;
    object      decomposeParDict;
}

numberOfSubdomains 4;

method          simple;

coeffs
{
    n           (2 2 1);
}
