FoamFile
{
    version     2.0;
    format      ascii;
    class       volScalarField;
    object      p;
}

dimensions      [0 2 -2 0 0 0 0]; //TODO

internalField   uniform 0;

boundaryField
{
    inlet
    {
        type            zeroGradient; //TODO is it different than fixedGradient + uniform 0?
    }

    outlet
    {
        type            fixedValue;
        value           uniform 0;
    }

    obstacle
    {
        type            zeroGradient;
    }
    
    upperWall
    {
        type            zeroGradient;
    }

    lowerWall
    {
        type            zeroGradient;
    }

    frontAndBack
    {
        type            empty;
    }
}