FoamFile {
    version 2.0;
    class dictionary;
    object fvOptions;
    format ascii;
}
