FoamFile {
    version     2.0;
    format      ascii;
    class       dictionary;
    object      controlDict;
}

application         buoyantSimpleFoam;

startFrom           startTime;

stopAt              endTime;

writeFormat         ascii;

writePrecision      12;

writeCompression    on;

timeFormat          general;

timePrecision       12;

runTimeModifiable   false;

deltaT              1;

startTime           0.0;

writeInterval       50;

adjustTimeStep      no;

endTime             500;

writeControl        timeStep;

functions
{
    preCICE_Adapter
    {
        type preciceAdapterFunctionObject;
        libs ("libpreciceAdapterFunctionObject.so");
    }
}
