FoamFile {
    version     2.0;
    format      ascii;
    class       dictionary;
    object      fvSchemes;
}

ddtSchemes {
    default steadyState;
}

gradSchemes {
    default                 cellLimited Gauss linear 1.0;
}

divSchemes {
    default                 Gauss linear;
    div(phi,e)              bounded Gauss upwind;
    div(phi,h)              bounded Gauss upwind;
    div((muEff*dev2(T(grad(U))))) Gauss linear;
    div(phiv,p)             bounded Gauss upwind;
    div(phi,K)              bounded Gauss upwind;
    div(phi,U)              bounded Gauss upwind;
}

laplacianSchemes {
    default                 Gauss linear corrected;
}

interpolationSchemes {
    default                 linear;
}

snGradSchemes {
    default                 corrected;
}

fluxRequired {
    default no;
    p_rgh;
}
