FoamFile
{
    version     2.0;
    format      ascii;
    class       dictionary;
    location    "system";
    object      preciceDict;
}

preciceConfig "../precice-config.xml";

participant Fluid-Inner;

modules (CHT);

interfaces
{
  Interface1
  {
    mesh              Fluid-Inner-to-Solid;
    patches           (interface);
    
    readData
    (
      Sink-Temperature-Solid
      Heat-Transfer-Coefficient-Solid
    );
    
    writeData
    (
      Sink-Temperature-Fluid-Inner
      Heat-Transfer-Coefficient-Fluid-Inner
    );
  };
};
