FoamFile
{
    version     2.0;
    format      ascii;
    class       dictionary;
    object      transportProperties;
}

DT               DT  [ 0  2 -1  0 0 0 0 ] 1;
