FoamFile
{
    version     2.0;
    format      ascii;
    class       dictionary;
    object      fvOptions;
}

codedSource
{
    type            vectorCodedSource;
    selectionMode   cellSet;
    cellSet         box1;

    fields          (U);
    name            sourceTime;

    codeSetValue //constrain
    #{
        printf("empty\n");
        /*auto U = eqn.psi();
        const labelList& cells = this->cells();
        for(auto cell : cells)
        {
            U[cell].x()= 12.0;
        }*/
    #};

    codeCorrect //correct
    #{
        const labelList& cells = this->cells();
        const volVectorField& U_vol = mesh_.lookupObject<volVectorField>("U_vol");
        int i=0;
        for(auto cell : cells)
        {
            // TODO try here
            fld[cell].x() = U_vol[cell].x();
        }
        //this->custom();
    #};

    codeAddSup // source term
    #{
        printf("empty\n");
    #};

    codeAddSupRho
    #{
        printf("empty\n");
    #};
}