FoamFile {
    version         2.0;
    format          ascii;
    class           uniformDimensionedVectorField;
    object          g;
}

value (0.0 0.0 0.0);

dimensions [0 1 -2 0 0 0 0];
