FoamFile
{
    version     2.0;
    format      ascii;
    class       dictionary;
    location    "system";
    object      preciceDict;
}

preciceConfig "../precice-config.xml";

participant Fluid-Outer;

modules (CHT);

interfaces
{
  Interface1
  {
    mesh              Fluid-Outer-to-Solid;
    patches           (interface);
    
    readData
    (
      Sink-Temperature-Solid
      Heat-Transfer-Coefficient-Solid
    );
    
    writeData
    (
      Sink-Temperature-Fluid-Outer
      Heat-Transfer-Coefficient-Fluid-Outer
    );
  };
};
