FoamFile
{
    version     2.0;
    format      ascii;
    class       dictionary;
    object      solidProperties;
}

solidModel    linearGeometryTotalDisplacement;

linearGeometryTotalDisplacementCoeffs
{
    // Maximum number of momentum correctors
    nCorrectors     1000;

    // Solution tolerance for displacement
    solutionTolerance 1e-08;

    // Alternative solution tolerance for displacement
    alternativeTolerance 1e-08;

    // Write frequency for the residuals
    infoFrequency   100;
}

