FoamFile
{
    version     2.0;
    format      ascii;
    class       dictionary;
    location    "system";
    object      preciceDict;
}

preciceConfig "../precice-config.xml";

participant Fluid1;

modules (FF);

interfaces
{
  Interface1
  {
    mesh              Fluid1-Mesh;
    patches           (outlet);
    
    readData
    (
      Pressure
      // VelocityBack
      VelocityGradient
      // AlphaGradient
      // PhiBack
    );
    
    writeData
    (
      Velocity
      // PressureBack
      // VelocityGradientBack
      Alpha
      // Phi
    );
  };
};

FF
{
  nameP   p_rgh;
  nameAlpha alpha.water;
}
