FoamFile
{
    version     2.0;
    format      ascii;
    class       volVectorField;
    object      U;
}

dimensions      [0 1 -1 0 0 0 0];

internalField   uniform (0 0 0);

boundaryField
{
    fixedWalls
    {
        type            fixedValue;
        value           uniform (0 0 0);
    }

    cplInlet
    {
        type            coupledVelocity;
        refValue        uniform (0 0 0);
    }

    outlet
    {
        type            zeroGradient;
    }

    frontAndBack
    {
        type            empty;
    }
}
