%%%%%%%%%%%%%%%%%%%%%%%%%%%%%%%%%%%%%%%%%%%%%%%%%%%%%%%%%%%%%%%%%%%%%%%%%%%%%%%%
%                                                                              %
% SU2 configuration file                                                       %
% Case description: Coupled FSI simulation of fluid flow over a flap           %
% Authors: Kirill Martynov, Dmytro Sashko, Jan Sültemeyer                      %
% Institution: Technische Universität München                                  %
% Date: 01.11.2017                                                             %
%                                                                              %
% Modified for SU2-FEniCS tutorial by Ishaan Desai                             %
% Date: 28.08.2020                                                             %
%%%%%%%%%%%%%%%%%%%%%%%%%%%%%%%%%%%%%%%%%%%%%%%%%%%%%%%%%%%%%%%%%%%%%%%%%%%%%%%%

% ------------- PRECICE PROBLEM DEFINITION ------------%

PRECICE_USAGE= YES
%
PRECICE_CONFIG_FILENAME= ../precice-config.xml
%
PRECICE_PARTICIPANT_NAME= Fluid
%
PRECICE_MESH_NAME= Fluid-Mesh
%
PRECICE_READ_DATA_NAME= Displacement
%
PRECICE_WRITE_DATA_NAME= Force
%
PRECICE_WETSURFACE_MARKER_NAME= wetSurface
%
PRECICE_NUMBER_OF_WETSURFACES= 1

% ------------- DIRECT, ADJOINT, AND LINEARIZED PROBLEM DEFINITION ------------%

% Physical governing equations (EULER, NAVIER_STOKES, NS_PLASMA)
PHYSICAL_PROBLEM= EULER
%
% Mathematical problem (DIRECT, CONTINUOUS_ADJOINT)
MATH_PROBLEM= DIRECT
%
% Restart solution (NO, YES)
RESTART_SOL= YES

% -------------------- COMPRESSIBLE FREE-STREAM DEFINITION --------------------%

% Mach number (non-dimensional, based on the free-stream values)
MACH_NUMBER= 0.01
%
% Angle of attack (degrees, only for compressible flows)
AOA= 0.0
%
% Free-stream option to choose between density and temperature (default) for
% initializing the solution (TEMPERATURE_FS, DENSITY_FS)
FREESTREAM_OPTION= TEMPERATURE_FS
%
% Free-stream pressure (101325.0 N/m^2 by default)  
FREESTREAM_PRESSURE= 101325.0
%
% Free-stream temperature (288.15 K by default)
FREESTREAM_TEMPERATURE= 288.15

% ------------------------- UNSTEADY SIMULATION -------------------------------%

% Unsteady simulation (NO, TIME_STEPPING, DUAL_TIME_STEPPING-1ST_ORDER,
%                      DUAL_TIME_STEPPING-2ND_ORDER, TIME_SPECTRAL)
UNSTEADY_SIMULATION= DUAL_TIME_STEPPING-1ST_ORDER
%
% Time Step for dual time stepping simulations (s)
UNST_TIMESTEP= 0.01
%
% Total Physical Time for dual time stepping simulations (s)
UNST_TIME= 5.0
%
% Number of internal iterations (dual time method)
UNST_INT_ITER= 200
%
% Iteration number to begin unsteady restarts
UNST_RESTART_ITER= 1

% ----------------------- DYNAMIC MESH DEFINITION -----------------------------%

% Dynamic mesh simulation (NO, YES)
GRID_MOVEMENT= YES
%
% Type of dynamic mesh (NONE, RIGID_MOTION, DEFORMING, ROTATING_FRAME,
%                       MOVING_WALL, STEADY_TRANSLATION, FLUID_STRUCTURE,
%                       AEROELASTIC, ELASTICITY, EXTERNAL,
%                       AEROELASTIC_RIGID_MOTION, GUST, PRECICE_MOVEMENT)
GRID_MOVEMENT_KIND= PRECICE_MOVEMENT
%
% Moving wall boundary marker(s) (NONE = no marker, ignored for RIGID_MOTION)
MARKER_MOVING= ( wetSurface )

% -------------------- BOUNDARY CONDITION DEFINITION --------------------------%

% Euler wall boundary marker(s) (NONE = no marker)
MARKER_EULER= ( upper_wall, lower_wall, wetSurface )
%
% Inlet boundary marker(s) (NONE = no marker) 
% Format: ( inlet marker, total temperature, total pressure, flow_direction_x, 
%           flow_direction_y, flow_direction_z ... ) where flow_direction is a unit vector.
MARKER_INLET= ( inlet, 288.6, 101400.0, 1.0, 0.0, 0.0 )
%
% Outlet boundary marker(s) (NONE = no marker)
% Format: ( outlet marker, back pressure (static), ... )
MARKER_OUTLET= ( outlet, 101100.0 )

% ------------- COMMON PARAMETERS DEFINING THE NUMERICAL METHOD ---------------%

% Numerical method for spatial gradients (GREEN_GAUSS, WEIGHTED_LEAST_SQUARES)
NUM_METHOD_GRAD= GREEN_GAUSS
%
% Courant-Friedrichs-Lewy condition of the finest grid
CFL_NUMBER= 2.0
%
% Adaptive CFL number (NO, YES)
CFL_ADAPT= NO
%
% Parameters of the adaptive CFL number (factor down, factor up, CFL min value,
%                                        CFL max value )
CFL_ADAPT_PARAM= ( 1.5, 0.5, 1.0, 100.0 )
%
% Runge-Kutta alpha coefficients
RK_ALPHA_COEFF= ( 0.66667, 0.66667, 1.000000 )
%
% Number of total iterations
EXT_ITER= 999999

% ------------------------ LINEAR SOLVER DEFINITION ---------------------------%

% Linear solver for implicit formulations (BCGSTAB, FGMRES)
LINEAR_SOLVER= FGMRES
%
% Preconditioner of the Krylov linear solver (JACOBI, LINELET, LU_SGS)
LINEAR_SOLVER_PREC= LU_SGS
%
% Minimum error of the linear solver for implicit formulations
LINEAR_SOLVER_ERROR= 1E-4
%
% Max number of iterations of the linear solver for the implicit formulation
LINEAR_SOLVER_ITER= 20

% -------------------------- MULTIGRID PARAMETERS -----------------------------%

% Multi-Grid Levels (0 = no multi-grid)
MGLEVEL= 3
%
% Multi-grid cycle (V_CYCLE, W_CYCLE, FULLMG_CYCLE)
MGCYCLE= V_CYCLE
%
% Multi-grid pre-smoothing level
MG_PRE_SMOOTH= ( 1, 2, 3, 3 )
%
% Multi-grid post-smoothing level
MG_POST_SMOOTH= ( 0, 0, 0, 0 )
%
% Jacobi implicit smoothing of the correction
MG_CORRECTION_SMOOTH= ( 0, 0, 0, 0 )
%
% Damping factor for the residual restriction
MG_DAMP_RESTRICTION= 0.9
%
% Damping factor for the correction prolongation
MG_DAMP_PROLONGATION= 0.9

% -------------------- FLOW NUMERICAL METHOD DEFINITION -----------------------%

% Convective numerical method (JST, LAX-FRIEDRICH, CUSP, ROE, AUSM, HLLC,
%                              TURKEL_PREC, MSW)
CONV_NUM_METHOD_FLOW= JST
%
% Monotonic Upwind Scheme for Conservation Laws (TVD) in the flow equations.
%           Required for 2nd order upwind schemes (NO, YES)
MUSCL_FLOW= YES
%
% Slope limiter (NONE, VENKATAKRISHNAN, VENKATAKRISHNAN_WANG,
%                BARTH_JESPERSEN, VAN_ALBADA_EDGE)
SLOPE_LIMITER_FLOW= VENKATAKRISHNAN
%
% Coefficient for the Venkats limiter (upwind scheme). A larger values decrease
%             the extent of limiting, values approaching zero cause
%             lower-order approximation to the solution (0.05 by default)
VENKAT_LIMITER_COEFF= 0.05
%
% 2nd and 4th order artificial dissipation coefficients for
%     the JST method ( 0.5, 0.02 by default )
JST_SENSOR_COEFF= ( 0.5, 0.02 )
%
% Time discretization (RUNGE-KUTTA_EXPLICIT, EULER_IMPLICIT, EULER_EXPLICIT)
TIME_DISCRE_FLOW= EULER_IMPLICIT

% --------------------------- CONVERGENCE PARAMETERS --------------------------%

% Convergence criteria (CAUCHY, RESIDUAL)
%
CONV_CRITERIA= RESIDUAL
%
% Residual reduction (order of magnitude with respect to the initial value)
RESIDUAL_REDUCTION= 1
%
% Min value of the residual (log10 of the residual)
RESIDUAL_MINVAL= -3.5
%
% Start convergence criteria at iteration number
STARTCONV_ITER= 10

% ------------------------- INPUT/OUTPUT INFORMATION --------------------------%

% Write residuals
WRT_RESIDUALS= YES
%
% Mesh input file
MESH_FILENAME= fluidMesh.su2
%
% Mesh input file format (SU2, CGNS, NETCDF_ASCII)
MESH_FORMAT= SU2
%
% Restart flow input file
SOLUTION_FLOW_FILENAME= initial_flow.dat
%
% Output file format (PARAVIEW, TECPLOT, STL)
OUTPUT_FORMAT= PARAVIEW
%
% Output file with the forces breakdown
BREAKDOWN_FILENAME= forces_breakdown.dat
%
% Output file restart flow
RESTART_FLOW_FILENAME= restart_flow.dat
%
% Output file convergence history (w/o extension)
CONV_FILENAME= history
%
% Write binary restart files (YES, NO)
WRT_BINARY_RESTART= NO
%
% Read binary restart files (YES, NO)
READ_BINARY_RESTART= NO
%
% Output file flow (w/o extension) variables
VOLUME_FLOW_FILENAME= flow
%
% Output file surface flow coefficient (w/o extension)
SURFACE_FLOW_FILENAME= surface_flow
%
% Write surface solution files
WRT_SRF_SOL= NO
%
% Writing solution file frequency
WRT_SOL_FREQ= 1
%
% Writing solution file frequency for physical time steps (dual time)
WRT_SOL_FREQ_DUALTIME= 1
%
% Writing convergence history frequency
WRT_CON_FREQ= 1
%
% Writing convergence history frequency
WRT_CON_FREQ_DUALTIME= 1

% ------------------------ GRID DEFORMATION PARAMETERS ------------------------%
%
% Linear solver or smoother for implicit formulations (FGMRES, RESTARTED_FGMRES, BCGSTAB)
DEFORM_LINEAR_SOLVER= FGMRES
%
% Preconditioner of the Krylov linear solver (ILU, LU_SGS, JACOBI)
DEFORM_LINEAR_SOLVER_PREC= LU_SGS
%
% Number of smoothing iterations for mesh deformation
DEFORM_LINEAR_ITER= 50
%
% Number of nonlinear deformation iterations (surface deformation increments)
DEFORM_NONLINEAR_ITER= 1
%
% Print the residuals during mesh deformation to the console (YES, NO)
%DEFORM_CONSOLE_OUTPUT= NO
%
% Factor to multiply smallest cell volume for deform tolerance (0.001 default)
DEFORM_TOL_FACTOR = 0.1
%
% Type of element stiffness imposed for FEA mesh deformation (INVERSE_VOLUME,
%                                          WALL_DISTANCE, CONSTANT_STIFFNESS)
DEFORM_STIFFNESS_TYPE= INVERSE_VOLUME
%
% Visualize the deformation (NO, YES)
%VISUALIZE_DEFORMATION= YES
