/*--------------------------------*- C++ -*----------------------------------*\
| =========                 |                                                 |
| \\      /  F ield         | OpenFOAM: The Open Source CFD Toolbox           |
|  \\    /   O peration     | Version:  v2312                                 |
|   \\  /    A nd           | Website:  www.openfoam.com                      |
|    \\/     M anipulation  |                                                 |
\*---------------------------------------------------------------------------*/
FoamFile
{
    version     2.0;
    format      ascii;
    class       volScalarField;
    object      omega;
}
// * * * * * * * * * * * * * * * * * * * * * * * * * * * * * * * * * * * * * //

omegaInlet      10;

dimensions      [0 0 -1 0 0 0 0];

internalField   uniform $omegaInlet;

boundaryField
{
    interface
    {
        type            omegaWallFunction;
        value           uniform $omegaInlet;
    }
    inlet
    {
        type            inletOutlet;
        inletValue      uniform $omegaInlet;
        value           uniform $omegaInlet;
    }
    outlet
    {
        type            omegaWallFunction;
        value           uniform $omegaInlet;
    }
    top
    {
        type            omegaWallFunction;
        value           uniform $omegaInlet;
    }
    bottom
    {
        type            omegaWallFunction;
        value           uniform $omegaInlet;
    }
    slip-bottom
    {
        type            omegaWallFunction;
        value           uniform $omegaInlet;
    }
    defaultFaces
    {
        type            empty;
    }
}


// ************************************************************************* //
