/*--------------------------------*- C++ -*----------------------------------*\
  =========                 |
  \\      /  F ield         | OpenFOAM: The Open Source CFD Toolbox
   \\    /   O peration     | Website:  https://openfoam.org
    \\  /    A nd           | Version:  7
     \\/     M anipulation  |

# Author1: Nithin Adidela, IIT Goa
# email: nithin.adiela.16003@iitgoa.ac.in

# Author2: Revanth Sharma Kollegala, IIT Goa
# email: revanth.sharma.16003@iitgoa.ac.in

# Author3: Y Sudhakar, IIT Goa
# email: sudhakar@iitgoa.ac.in

# Inspired by the contribution by Derek Risseeuw (TU Delft).
\*---------------------------------------------------------------------------*/
FoamFile
{
    version     2.0;
    format      ascii;
    class       dictionary;
    location    "system";
    object      fvSolution;
}
// * * * * * * * * * * * * * * * * * * * * * * * * * * * * * * * * * * * * * //

solvers
{
    p
    {
        solver           GAMG;
        tolerance        1e-10;
        relTol           1e-6;
        smoother         DICGaussSeidel;
    }

    pFinal
    {
        $p;
        relTol          0;
    }

    pcorrFinal
    {
        $p;
        relTol          0;
    }

    Phi
    {
        $p;
    }

    "(U|cellDisplacement)"
    {
        solver          smoothSolver;
        smoother        symGaussSeidel;
        tolerance       1e-10;
        relTol          1e-6;
    }

    "(U|cellDisplacement)Final"
    {
        $U;
        relTol          0;
    }
}

PIMPLE
{
    nCorrectors 2;
    nNonOrthogonalCorrectors 0;
    tolerance 1.0e-14;
    relTol 5e-3;
    pisoTol 1e-6;
    consistent  true;

    nOuterCorrectors 50;

    residualControl
    {

U 1e-05;
p 1e-05;







    
    }
}

potentialFlow
{
    nNonOrthogonalCorrectors 5;
}


// ************************************************************************* //
