/*--------------------------------*- C++ -*----------------------------------*\
  =========                 |
  \\      /  F ield         | OpenFOAM: The Open Source CFD Toolbox
   \\    /   O peration     | Website:  https://openfoam.org
    \\  /    A nd           | Version:  7
     \\/     M anipulation  |
\*---------------------------------------------------------------------------*/
FoamFile
{
    version     2.0;
    format      ascii;
    class       polyBoundaryMesh;
    location    "constant/polyMesh";
    object      boundary;
}
// * * * * * * * * * * * * * * * * * * * * * * * * * * * * * * * * * * * * * //

6
(
    inlet
    {
        type            wall;
        inGroups        List<word> 1(wall);
        nFaces          50;
        startFace       6165;
    }
    outlet
    {
        type            wall;
        inGroups        List<word> 1(wall);
        nFaces          50;
        startFace       6215;
    }
    flap
    {
        type            wall;
        inGroups        List<word> 1(wall);
        nFaces          45;
        startFace       6265;
    }
    upperWall
    {
        type            patch;
        nFaces          65;
        startFace       6310;
    }
    lowerWall
    {
        type            wall;
        inGroups        List<word> 1(wall);
        nFaces          60;
        startFace       6375;
    }
    frontAndBack
    {
        type            empty;
        inGroups        List<word> 1(empty);
        nFaces          6300;
        startFace       6435;
    }
)

// ************************************************************************* //
