FoamFile
{
    version     2.0;
    format      ascii;
    class       dictionary;
    location    "system";
    object      fvSolution;
}

solvers
{
  T
  {
    solver           PBiCGStab;
    preconditioner   DILU;
    tolerance        1e-6;
    relTol 	         0;
    norm             default;
  }
}

SIMPLE
{
    nNonOrthogonalCorrectors 0;
}
