/*--------------------------------*- C++ -*----------------------------------*\
| =========                 |                                                 |
| \\      /  F ield         | foam-extend: Open Source CFD                    |
|  \\    /   O peration     | Version:     3.2                                |
|   \\  /    A nd           | Web:         http://www.foam-extend.org         |
|    \\/     M anipulation  | For copyright notice see file Copyright         |
\*---------------------------------------------------------------------------*/
FoamFile
{
    version     2.0;
    format      ascii;
    class       polyBoundaryMesh;
    location    "constant/polyMesh";
    object      boundary;
}
// * * * * * * * * * * * * * * * * * * * * * * * * * * * * * * * * * * * * * //

3
(
    auto0
    {
        type            patch;
        nFaces          141;
        startFace       63397;
    }
    interface
    {
        type            patch;
        nFaces          3658;
        startFace       63538;
    }
    auto2
    {
        type            patch;
        nFaces          171;
        startFace       67196;
    }
)

// ************************************************************************* //
