FoamFile
{
    version         2.0;
    format          ascii;
    class           dictionary;
    object          controlDict;
}

application     pimpleFoam;       // latest OpenFOAM
// application     pimpleDyMFoam; // OpenFOAM v1712, OpenFOAM 5.x, or older

startFrom startTime;

startTime 0;

stopAt endTime;

endTime 0.5;

deltaT 0.0001;

writeControl timeStep;

writeInterval 10;

purgeWrite 0;

writeFormat ascii;

writePrecision 14;

writeCompression uncompressed;

timeFormat general;

timePrecision 8;

runTimeModifiable false;

adjustTimeStep no;

functions
{
    preCICE_Adapter
    {
        type preciceAdapterFunctionObject;
        libs ("libpreciceAdapterFunctionObject.so");
    }
}
