FoamFile
{
    version     2.0;
    format      ascii;
    class       dictionary;
    object      topoSetDict;
}

actions
(
    {
        name    box1;
        type    cellSet;
        action  new;
        source  boxToCell;
        box     (3.0 1.0 0.0) (3.5 1.5 1.0);
    }
);


