/*--------------------------------*- C++ -*----------------------------------*\
| =========                 |                                                 |
| \\      /  F ield         | OpenFOAM: The Open Source CFD Toolbox           |
|  \\    /   O peration     | Version:  v2212                                 |
|   \\  /    A nd           | Website:  www.openfoam.com                      |
|    \\/     M anipulation  |                                                 |
\*---------------------------------------------------------------------------*/
FoamFile
{
    version     2.0;
    format      ascii;
    class       dictionary;
    object      topoSetDict;
}
// * * * * * * * * * * * * * * * * * * * * * * * * * * * * * * * * * * * * * //

actions
(
    {
        name    box1;
        type    cellSet;
        action  new;
        source  boxToCell;
        box     (3.0 1.0 0.0) (3.5 1.5 1.0);
    }

    {
        name    box2;
        type    cellSet;
        action  new;
        source  boxToCell;
        box     (4.0 1.5 0.0) (4.5 2.0 1.0);
    }
);


// ************************************************************************* //
