FoamFile
{
    version 2.0;
    format ascii;
    class dictionary;
    location system;
    object decomposeParDict;
}
// * * * * * * * * * * * * * * * * * * * * * * * * * * * * * * * * * * * * * //

    numberOfSubdomains 2;
    method scotch;
    
    distributed false;
    roots
    (
    );

