FoamFile
{
    version     2.0;
    format      ascii;
    class       dictionary;
    object      dynamicMeshDict;
}

libs ("libfvMeshStitchers.so");

mover
{
   type motionSolver;

   libs ("libfvMeshMovers.so" "libfvMotionSolvers.so");

   motionSolver displacementLaplacian;
   diffusivity quadratic inverseDistance (flap);
}
