FoamFile
{
    version     2.0;
    format      ascii;
    class       volVectorField;
    object      U_vol;
}

dimensions      [ 0 1 -1 0 0 0 0 ];

internalField   uniform ( 0.1 0 0 );

boundaryField
{
    inlet
    {
        type            fixedValue;
        value           $internalField;
    }
    outlet
    {
        type            zeroGradient;
    }
    upperWall
    {
        type            noSlip;
    }
    lowerWall
    {
        type            noSlip;
    }
    frontAndBack
    {
        type            empty;
    }
    defaultFaces
    {
        type            empty;
    }
}
