FoamFile
{
    version     2.0;
    format      ascii;
    class       pointVectorField;
    object      pointDisplacement;
}
// * * * * * * * * * * * * * * * * * * * * * * * * * * * * * * * * * * * * * //

dimensions      [0 1 0 0 0 0 0];

internalField   uniform (0 0 0);

boundaryField
{
    inlet
    {
        type            fixedValue;
        value           uniform (0 0 0);
    }

    outlet
    {
        type            fixedValue;
        value           uniform (0 0 0);
    }

    flap1
    {
        type            fixedValue;
        value           $internalField;
    }
    
    flap2
    {
        type            fixedValue;
        value           $internalField;
    }
    
    upperWall
    {
        type            slip;
    }

    lowerWall
    {
        type            slip;
    }

    frontAndBack
    {
        type            empty;
    }
}

// ************************************************************************* //
