FoamFile
{
    version     2.0;
    format      ascii;
    class       volScalarField;
    object      T;
}

dimensions      [0 0 0 1 0 0 0];

internalField   uniform 353;

boundaryField
{
    inlet
    {
        type            fixedValue;
        value           uniform 353;
    }
    interface
    {
        type            mixed;
        refValue		uniform 293;
        valueFraction	uniform 0.5;
        refGradient		uniform 0;
    }
    outlet
    {
        type            zeroGradient;
    }
    adiabatic
    {
        type            zeroGradient;
    }
}
