FoamFile
{
    version     2.0;
    format      ascii;
    class       dictionary;
    object      controlDict;
}

application     pimpleFoam;

startFrom       startTime;

startTime       0;

stopAt          endTime;

endTime         2.5;

deltaT          0.005;

writeControl    runTime;

writeInterval   0.05;

purgeWrite      0;

writeFormat     ascii;

writePrecision  8;

writeCompression off;

timeFormat      general;

timePrecision   6;

runTimeModifiable false;


libs ("libpreciceAdapterFunctionObject.so");
functions
{
    preCICE_Adapter
    {
        type preciceAdapterFunctionObject;
    }
}
