FoamFile
{
    version     2.0;
    format      ascii;
    class       dictionary;
    location    "system";
    object      preciceDict;
}

preciceConfig "../precice-config.xml";

participant Fluid3D;

modules (FF);

interfaces
{
  Interface1
  {
    mesh              Fluid3D-Mesh;
    patches           (inlet);
    
    readData
    (
      Velocity
    );
    
    writeData
    (
      Pressure
    );
  };
};