FoamFile
{
    version     2.0;
    format      ascii;
    class       dictionary;
    object      blockMeshDict;
}

vertices
(
    (0 0 0)
    (1 0 0)
    (1 .5 0)
    (0 .5 0)

    (0 0 .4)
    (1 0 .4)
    (1 .5 .4)
    (0 .5 .4)

    (3 0 0)
    (3 .5 0)

    (3 0 .4)
    (3 .5 .4)

    (-.5 0 0)
    (-.5 .5 0)

    (-.5 .5 .4)
    (-.5 0 .4)
);

blocks
(
    hex (12 0 3 13 15 4 7 14) (81 41 1) simpleGrading (.2 15 1)
    hex (0 1 2 3 4 5 6 7) (161 41 1) simpleGrading (5 15 1)
);

boundary
(

    inlet
    {
        type wall;
        faces
        (
            (13 12 15 14)
        );
    }

    outlet
    {
        type wall;
        faces
        (
            (1 2 6 5)
        );
    }

    top
    {
        type wall;
        faces
        (
            (13 3 7 14)
            (7 6 2 3)
        );
    }

    slip-bottom
    {
        type wall;
        faces
        (
            (15 12 0 4)
        );
    }

    interface
    {
        type wall;
        faces
        (
            (4 0 1 5)
        );
    }
);
