FoamFile
{
    version     2.0;
    format      ascii;
    class       dictionary;
    object      blockMeshDict;
}

vertices
(

    (0 0 0)
    (1 0 0)
    (1 1 0)
    (0 1 0)

    (0 0 .1)
    (1 0 .1)
    (1 1 .1)
    (0 1 .1)
);

blocks
(
    hex (0 1 2 3 4 5 6 7) (10 10 1) simpleGrading (1 1 1)
);

edges
(
);

boundary
(

    left
    {
        type wall;
        faces
        (
            (4 7 3 0)
        );
    }

    interface
    {
        type wall;
        faces
        (
            (1 2 6 5)
        );
    }

    top
    {
        type wall;
        faces
        (
            (7 6 2 3)
        );
    }

    bottom
    {
        type wall;
        faces
        (
            (4 0 1 5)
        );
    }

);

mergePatchPairs
(
);
